10

C    -3.8407177926    0.2244064572    0.0182487189
C    -2.7194226266    -0.5003970769    0.035443151
C    -1.384833187    0.0703384139    0.0141168999
C    -0.2635340192    -0.6544586558    0.0313112547
H    -4.814131479    -0.2401008985    0.035209548
H    -3.8080408429    1.3044752724    -0.0133555918
H    -2.7830341764    -1.5816945627    0.067191937
H    -1.3212319549    1.1516363973    -0.0176318381
H    -0.296198277    -1.7345269278    0.0629157494
H    0.7098743557    -0.1899384187    0.0143501844
