6

C    -6.5973547914    -1.1140392815    1.1661854544
C    -5.201510843    -0.7922461564    0.9075184121
N    -4.0937712503    -0.5369290419    0.702254065
H    -6.7617952484    -1.226779859    2.2342223023
H    -6.8636633965    -2.0428560479    0.6693617427
H    -7.2379544704    -0.3195296134    0.7936080234
